Hello! Version by JackJazz.
Test OK.
New Line.
One more line!
Testing.
Goooooo!
FIXED!
Up14.
up15.
up17.
GO!
