Hello! Version by JackJazz.
Test OK.
New Line.
