Hello! Version by JackJazz.
Test OK.
New Line.
One more line!
