Hello! Version by JackJazz.
Test OK.
New Line.
One more line!
Testing.
Goooooo!
FIXED!
Up12.
new new new.
super1
super2
